Version 4
SHEET 1 880 680
WIRE 128 112 96 112
WIRE 128 128 128 112
WIRE 16 208 16 112
WIRE -304 240 -384 240
WIRE -64 240 -224 240
WIRE 160 256 64 256
WIRE -384 272 -384 240
WIRE -64 272 -128 272
WIRE -128 336 -128 272
WIRE 160 336 -128 336
WIRE 16 368 16 304
WIRE 160 368 160 336
FLAG 160 448 0
FLAG 128 128 0
FLAG 16 448 0
FLAG -384 272 0
SYMBOL op_basic 64 240 R0
SYMATTR InstName X1
SYMBOL res 144 240 R0
SYMATTR InstName R1
SYMATTR Value 3.3k
SYMBOL res 144 352 R0
SYMATTR InstName R2
SYMATTR Value 1k
SYMBOL voltage 0 112 R270
WINDOW 0 32 56 VTop 2
WINDOW 3 -32 56 VBottom 2
WINDOW 123 0 0 Left 0
WINDOW 39 0 0 Left 0
SYMATTR InstName V1
SYMATTR Value 12
SYMBOL voltage 16 352 R0
WINDOW 123 0 0 Left 0
WINDOW 39 0 0 Left 0
SYMATTR InstName V2
SYMATTR Value -12
SYMBOL voltage -208 240 R90
WINDOW 0 -32 56 VBottom 2
WINDOW 3 32 56 VTop 2
WINDOW 123 0 0 Left 0
WINDOW 39 0 0 Left 0
SYMATTR InstName V3
SYMATTR Value 1v
TEXT -404 472 Left 2 !.tran 1ms
